# RIV package for  MODFLOW-2005, generated by Flopy.
        25         0
        25         0 # stress period 1
         1         1        13             1.0          1600.0             0.0
         1         2        13             1.0          1600.0             0.0
         1         3        13             1.0          1600.0             0.0
         1         4        13             1.0          1600.0             0.0
         1         5        13             1.0          1600.0             0.0
         1         6        13             1.0          1600.0             0.0
         1         7        13             1.0          1600.0             0.0
         1         8        13             1.0          1600.0             0.0
         1         9        13             1.0          1600.0             0.0
         1        10        13             1.0          1600.0             0.0
         1        11        13             1.0          1600.0             0.0
         1        12        13             1.0          1600.0             0.0
         1        13        13             1.0          1600.0             0.0
         1        14        13             1.0          1600.0             0.0
         1        15        13             1.0          1600.0             0.0
         1        16        13             1.0          1600.0             0.0
         1        17        13             1.0          1600.0             0.0
         1        18        13             1.0          1600.0             0.0
         1        19        13             1.0          1600.0             0.0
         1        20        13             1.0          1600.0             0.0
         1        21        13             1.0          1600.0             0.0
         1        22        13             1.0          1600.0             0.0
         1        23        13             1.0          1600.0             0.0
         1        24        13             1.0          1600.0             0.0
         1        25        13             1.0          1600.0             0.0
        25         0 # stress period 2
         1         1        13             5.0          1600.0             0.0
         1         2        13             5.0          1600.0             0.0
         1         3        13             5.0          1600.0             0.0
         1         4        13             5.0          1600.0             0.0
         1         5        13             5.0          1600.0             0.0
         1         6        13             5.0          1600.0             0.0
         1         7        13             5.0          1600.0             0.0
         1         8        13             5.0          1600.0             0.0
         1         9        13             5.0          1600.0             0.0
         1        10        13             5.0          1600.0             0.0
         1        11        13             5.0          1600.0             0.0
         1        12        13             5.0          1600.0             0.0
         1        13        13             5.0          1600.0             0.0
         1        14        13             5.0          1600.0             0.0
         1        15        13             5.0          1600.0             0.0
         1        16        13             5.0          1600.0             0.0
         1        17        13             5.0          1600.0             0.0
         1        18        13             5.0          1600.0             0.0
         1        19        13             5.0          1600.0             0.0
         1        20        13             5.0          1600.0             0.0
         1        21        13             5.0          1600.0             0.0
         1        22        13             5.0          1600.0             0.0
         1        23        13             5.0          1600.0             0.0
         1        24        13             5.0          1600.0             0.0
         1        25        13             5.0          1600.0             0.0
        25         0 # stress period 3
         1         1        13             1.0          1600.0             0.0
         1         2        13             1.0          1600.0             0.0
         1         3        13             1.0          1600.0             0.0
         1         4        13             1.0          1600.0             0.0
         1         5        13             1.0          1600.0             0.0
         1         6        13             1.0          1600.0             0.0
         1         7        13             1.0          1600.0             0.0
         1         8        13             1.0          1600.0             0.0
         1         9        13             1.0          1600.0             0.0
         1        10        13             1.0          1600.0             0.0
         1        11        13             1.0          1600.0             0.0
         1        12        13             1.0          1600.0             0.0
         1        13        13             1.0          1600.0             0.0
         1        14        13             1.0          1600.0             0.0
         1        15        13             1.0          1600.0             0.0
         1        16        13             1.0          1600.0             0.0
         1        17        13             1.0          1600.0             0.0
         1        18        13             1.0          1600.0             0.0
         1        19        13             1.0          1600.0             0.0
         1        20        13             1.0          1600.0             0.0
         1        21        13             1.0          1600.0             0.0
         1        22        13             1.0          1600.0             0.0
         1        23        13             1.0          1600.0             0.0
         1        24        13             1.0          1600.0             0.0
         1        25        13             1.0          1600.0             0.0
