# CHD package for  MODFLOW-2005, generated by Flopy.
        50
        50         0 # stress period 1
         1         1         1             2.0             2.0
         1         1        25             2.0             2.0
         1         2         1             2.0             2.0
         1         2        25             2.0             2.0
         1         3         1             2.0             2.0
         1         3        25             2.0             2.0
         1         4         1             2.0             2.0
         1         4        25             2.0             2.0
         1         5         1             2.0             2.0
         1         5        25             2.0             2.0
         1         6         1             2.0             2.0
         1         6        25             2.0             2.0
         1         7         1             2.0             2.0
         1         7        25             2.0             2.0
         1         8         1             2.0             2.0
         1         8        25             2.0             2.0
         1         9         1             2.0             2.0
         1         9        25             2.0             2.0
         1        10         1             2.0             2.0
         1        10        25             2.0             2.0
         1        11         1             2.0             2.0
         1        11        25             2.0             2.0
         1        12         1             2.0             2.0
         1        12        25             2.0             2.0
         1        13         1             2.0             2.0
         1        13        25             2.0             2.0
         1        14         1             2.0             2.0
         1        14        25             2.0             2.0
         1        15         1             2.0             2.0
         1        15        25             2.0             2.0
         1        16         1             2.0             2.0
         1        16        25             2.0             2.0
         1        17         1             2.0             2.0
         1        17        25             2.0             2.0
         1        18         1             2.0             2.0
         1        18        25             2.0             2.0
         1        19         1             2.0             2.0
         1        19        25             2.0             2.0
         1        20         1             2.0             2.0
         1        20        25             2.0             2.0
         1        21         1             2.0             2.0
         1        21        25             2.0             2.0
         1        22         1             2.0             2.0
         1        22        25             2.0             2.0
         1        23         1             2.0             2.0
         1        23        25             2.0             2.0
         1        24         1             2.0             2.0
         1        24        25             2.0             2.0
         1        25         1             2.0             2.0
         1        25        25             2.0             2.0
        -1         0 # stress period 2
        -1         0 # stress period 3
